
---------- Begin Simulation Statistics ----------
final_tick                                   35202429                       # Number of ticks from beginning of simulation (restored from checkpoints and never reset)
host_inst_rate                                  97423                       # Simulator instruction rate (inst/s)
host_mem_usage                                 711604                       # Number of bytes of host memory used
host_op_rate                                   113724                       # Simulator op (including micro ops) rate (op/s)
host_seconds                                     0.16                       # Real time elapsed on the host
host_tick_rate                              217678686                       # Simulator tick rate (ticks/s)
sim_freq                                 1000000000000                       # Frequency of simulated ticks
sim_insts                                       15738                       # Number of instructions simulated
sim_ops                                         18387                       # Number of ops (including micro ops) simulated
sim_seconds                                  0.000035                       # Number of seconds simulated
sim_ticks                                    35202429                       # Number of ticks simulated
system.cpu.branchPred.BTBCorrect                    0                       # Number of correct BTB predictions (this stat may not work properly.
system.cpu.branchPred.BTBHitPct             31.625719                       # BTB Hit Percentage
system.cpu.branchPred.BTBHits                    1210                       # Number of BTB hits
system.cpu.branchPred.BTBLookups                 3826                       # Number of BTB lookups
system.cpu.branchPred.RASInCorrect                  8                       # Number of incorrect RAS predictions.
system.cpu.branchPred.condIncorrect               662                       # Number of conditional branches incorrect
system.cpu.branchPred.condPredicted              3045                       # Number of conditional branches predicted
system.cpu.branchPred.indirectHits                 87                       # Number of indirect target hits.
system.cpu.branchPred.indirectLookups             272                       # Number of indirect predictor lookups.
system.cpu.branchPred.indirectMisses              185                       # Number of indirect misses.
system.cpu.branchPred.lookups                    4737                       # Number of BP lookups
system.cpu.branchPred.usedRAS                     473                       # Number of times the RAS was used to get a target.
system.cpu.branchPredindirectMispredicted           89                       # Number of mispredicted indirect branches.
system.cpu.committedInsts                       15738                       # Number of instructions committed
system.cpu.committedOps                         18387                       # Number of ops (including micro ops) committed
system.cpu.cpi                               6.717054                       # CPI: cycles per instruction
system.cpu.discardedOps                          2060                       # Number of ops (including micro ops) which were discarded before commit
system.cpu.dtb.accesses                             0                       # DTB accesses
system.cpu.dtb.align_faults                         0                       # Number of TLB faults due to alignment restrictions
system.cpu.dtb.domain_faults                        0                       # Number of TLB faults due to domain restrictions
system.cpu.dtb.flush_entries                        0                       # Number of entries that have been flushed from TLB
system.cpu.dtb.flush_tlb                            0                       # Number of times complete TLB was flushed
system.cpu.dtb.flush_tlb_asid                       0                       # Number of times TLB was flushed by ASID
system.cpu.dtb.flush_tlb_mva                        0                       # Number of times TLB was flushed by MVA
system.cpu.dtb.flush_tlb_mva_asid                   0                       # Number of times TLB was flushed by MVA & ASID
system.cpu.dtb.hits                                 0                       # DTB hits
system.cpu.dtb.inst_accesses                        0                       # ITB inst accesses
system.cpu.dtb.inst_hits                            0                       # ITB inst hits
system.cpu.dtb.inst_misses                          0                       # ITB inst misses
system.cpu.dtb.misses                               0                       # DTB misses
system.cpu.dtb.perms_faults                         0                       # Number of TLB faults due to permissions restrictions
system.cpu.dtb.prefetch_faults                      0                       # Number of TLB faults due to prefetch
system.cpu.dtb.read_accesses                        0                       # DTB read accesses
system.cpu.dtb.read_hits                            0                       # DTB read hits
system.cpu.dtb.read_misses                          0                       # DTB read misses
system.cpu.dtb.stage2_mmu.stage2_tlb.accesses            0                       # DTB accesses
system.cpu.dtb.stage2_mmu.stage2_tlb.align_faults            0                       # Number of TLB faults due to alignment restrictions
system.cpu.dtb.stage2_mmu.stage2_tlb.domain_faults            0                       # Number of TLB faults due to domain restrictions
system.cpu.dtb.stage2_mmu.stage2_tlb.flush_entries            0                       # Number of entries that have been flushed from TLB
system.cpu.dtb.stage2_mmu.stage2_tlb.flush_tlb            0                       # Number of times complete TLB was flushed
system.cpu.dtb.stage2_mmu.stage2_tlb.flush_tlb_asid            0                       # Number of times TLB was flushed by ASID
system.cpu.dtb.stage2_mmu.stage2_tlb.flush_tlb_mva            0                       # Number of times TLB was flushed by MVA
system.cpu.dtb.stage2_mmu.stage2_tlb.flush_tlb_mva_asid            0                       # Number of times TLB was flushed by MVA & ASID
system.cpu.dtb.stage2_mmu.stage2_tlb.hits            0                       # DTB hits
system.cpu.dtb.stage2_mmu.stage2_tlb.inst_accesses            0                       # ITB inst accesses
system.cpu.dtb.stage2_mmu.stage2_tlb.inst_hits            0                       # ITB inst hits
system.cpu.dtb.stage2_mmu.stage2_tlb.inst_misses            0                       # ITB inst misses
system.cpu.dtb.stage2_mmu.stage2_tlb.misses            0                       # DTB misses
system.cpu.dtb.stage2_mmu.stage2_tlb.perms_faults            0                       # Number of TLB faults due to permissions restrictions
system.cpu.dtb.stage2_mmu.stage2_tlb.prefetch_faults            0                       # Number of TLB faults due to prefetch
system.cpu.dtb.stage2_mmu.stage2_tlb.read_accesses            0                       # DTB read accesses
system.cpu.dtb.stage2_mmu.stage2_tlb.read_hits            0                       # DTB read hits
system.cpu.dtb.stage2_mmu.stage2_tlb.read_misses            0                       # DTB read misses
system.cpu.dtb.stage2_mmu.stage2_tlb.walker.walkRequestOrigin_Requested::Data            0                       # Table walker requests started/completed, data/inst
system.cpu.dtb.stage2_mmu.stage2_tlb.walker.walkRequestOrigin_Requested::Inst            0                       # Table walker requests started/completed, data/inst
system.cpu.dtb.stage2_mmu.stage2_tlb.walker.walkRequestOrigin_Requested::total            0                       # Table walker requests started/completed, data/inst
system.cpu.dtb.stage2_mmu.stage2_tlb.walker.walkRequestOrigin_Completed::Data            0                       # Table walker requests started/completed, data/inst
system.cpu.dtb.stage2_mmu.stage2_tlb.walker.walkRequestOrigin_Completed::Inst            0                       # Table walker requests started/completed, data/inst
system.cpu.dtb.stage2_mmu.stage2_tlb.walker.walkRequestOrigin_Completed::total            0                       # Table walker requests started/completed, data/inst
system.cpu.dtb.stage2_mmu.stage2_tlb.walker.walkRequestOrigin::total            0                       # Table walker requests started/completed, data/inst
system.cpu.dtb.stage2_mmu.stage2_tlb.walker.walks            0                       # Table walker walks requested
system.cpu.dtb.stage2_mmu.stage2_tlb.write_accesses            0                       # DTB write accesses
system.cpu.dtb.stage2_mmu.stage2_tlb.write_hits            0                       # DTB write hits
system.cpu.dtb.stage2_mmu.stage2_tlb.write_misses            0                       # DTB write misses
system.cpu.dtb.walker.walkRequestOrigin_Requested::Data            0                       # Table walker requests started/completed, data/inst
system.cpu.dtb.walker.walkRequestOrigin_Requested::Inst            0                       # Table walker requests started/completed, data/inst
system.cpu.dtb.walker.walkRequestOrigin_Requested::total            0                       # Table walker requests started/completed, data/inst
system.cpu.dtb.walker.walkRequestOrigin_Completed::Data            0                       # Table walker requests started/completed, data/inst
system.cpu.dtb.walker.walkRequestOrigin_Completed::Inst            0                       # Table walker requests started/completed, data/inst
system.cpu.dtb.walker.walkRequestOrigin_Completed::total            0                       # Table walker requests started/completed, data/inst
system.cpu.dtb.walker.walkRequestOrigin::total            0                       # Table walker requests started/completed, data/inst
system.cpu.dtb.walker.walks                         0                       # Table walker walks requested
system.cpu.dtb.write_accesses                       0                       # DTB write accesses
system.cpu.dtb.write_hits                           0                       # DTB write hits
system.cpu.dtb.write_misses                         0                       # DTB write misses
system.cpu.fetch2.amo_instructions                  0                       # Number of memory atomic instructions successfully decoded
system.cpu.fetch2.fp_instructions                   0                       # Number of floating point instructions successfully decoded
system.cpu.fetch2.int_instructions              13682                       # Number of integer instructions successfully decoded
system.cpu.fetch2.load_instructions              3233                       # Number of memory load instructions successfully decoded
system.cpu.fetch2.store_instructions             1771                       # Number of memory store instructions successfully decoded
system.cpu.fetch2.vec_instructions                  0                       # Number of SIMD instructions successfully decoded
system.cpu.idleCycles                           79242                       # Total number of cycles that the object has spent stopped
system.cpu.ipc                               0.148875                       # IPC: instructions per cycle
system.cpu.itb.accesses                             0                       # DTB accesses
system.cpu.itb.align_faults                         0                       # Number of TLB faults due to alignment restrictions
system.cpu.itb.domain_faults                        0                       # Number of TLB faults due to domain restrictions
system.cpu.itb.flush_entries                        0                       # Number of entries that have been flushed from TLB
system.cpu.itb.flush_tlb                            0                       # Number of times complete TLB was flushed
system.cpu.itb.flush_tlb_asid                       0                       # Number of times TLB was flushed by ASID
system.cpu.itb.flush_tlb_mva                        0                       # Number of times TLB was flushed by MVA
system.cpu.itb.flush_tlb_mva_asid                   0                       # Number of times TLB was flushed by MVA & ASID
system.cpu.itb.hits                                 0                       # DTB hits
system.cpu.itb.inst_accesses                        0                       # ITB inst accesses
system.cpu.itb.inst_hits                            0                       # ITB inst hits
system.cpu.itb.inst_misses                          0                       # ITB inst misses
system.cpu.itb.misses                               0                       # DTB misses
system.cpu.itb.perms_faults                         0                       # Number of TLB faults due to permissions restrictions
system.cpu.itb.prefetch_faults                      0                       # Number of TLB faults due to prefetch
system.cpu.itb.read_accesses                        0                       # DTB read accesses
system.cpu.itb.read_hits                            0                       # DTB read hits
system.cpu.itb.read_misses                          0                       # DTB read misses
system.cpu.itb.stage2_mmu.stage2_tlb.accesses            0                       # DTB accesses
system.cpu.itb.stage2_mmu.stage2_tlb.align_faults            0                       # Number of TLB faults due to alignment restrictions
system.cpu.itb.stage2_mmu.stage2_tlb.domain_faults            0                       # Number of TLB faults due to domain restrictions
system.cpu.itb.stage2_mmu.stage2_tlb.flush_entries            0                       # Number of entries that have been flushed from TLB
system.cpu.itb.stage2_mmu.stage2_tlb.flush_tlb            0                       # Number of times complete TLB was flushed
system.cpu.itb.stage2_mmu.stage2_tlb.flush_tlb_asid            0                       # Number of times TLB was flushed by ASID
system.cpu.itb.stage2_mmu.stage2_tlb.flush_tlb_mva            0                       # Number of times TLB was flushed by MVA
system.cpu.itb.stage2_mmu.stage2_tlb.flush_tlb_mva_asid            0                       # Number of times TLB was flushed by MVA & ASID
system.cpu.itb.stage2_mmu.stage2_tlb.hits            0                       # DTB hits
system.cpu.itb.stage2_mmu.stage2_tlb.inst_accesses            0                       # ITB inst accesses
system.cpu.itb.stage2_mmu.stage2_tlb.inst_hits            0                       # ITB inst hits
system.cpu.itb.stage2_mmu.stage2_tlb.inst_misses            0                       # ITB inst misses
system.cpu.itb.stage2_mmu.stage2_tlb.misses            0                       # DTB misses
system.cpu.itb.stage2_mmu.stage2_tlb.perms_faults            0                       # Number of TLB faults due to permissions restrictions
system.cpu.itb.stage2_mmu.stage2_tlb.prefetch_faults            0                       # Number of TLB faults due to prefetch
system.cpu.itb.stage2_mmu.stage2_tlb.read_accesses            0                       # DTB read accesses
system.cpu.itb.stage2_mmu.stage2_tlb.read_hits            0                       # DTB read hits
system.cpu.itb.stage2_mmu.stage2_tlb.read_misses            0                       # DTB read misses
system.cpu.itb.stage2_mmu.stage2_tlb.walker.walkRequestOrigin_Requested::Data            0                       # Table walker requests started/completed, data/inst
system.cpu.itb.stage2_mmu.stage2_tlb.walker.walkRequestOrigin_Requested::Inst            0                       # Table walker requests started/completed, data/inst
system.cpu.itb.stage2_mmu.stage2_tlb.walker.walkRequestOrigin_Requested::total            0                       # Table walker requests started/completed, data/inst
system.cpu.itb.stage2_mmu.stage2_tlb.walker.walkRequestOrigin_Completed::Data            0                       # Table walker requests started/completed, data/inst
system.cpu.itb.stage2_mmu.stage2_tlb.walker.walkRequestOrigin_Completed::Inst            0                       # Table walker requests started/completed, data/inst
system.cpu.itb.stage2_mmu.stage2_tlb.walker.walkRequestOrigin_Completed::total            0                       # Table walker requests started/completed, data/inst
system.cpu.itb.stage2_mmu.stage2_tlb.walker.walkRequestOrigin::total            0                       # Table walker requests started/completed, data/inst
system.cpu.itb.stage2_mmu.stage2_tlb.walker.walks            0                       # Table walker walks requested
system.cpu.itb.stage2_mmu.stage2_tlb.write_accesses            0                       # DTB write accesses
system.cpu.itb.stage2_mmu.stage2_tlb.write_hits            0                       # DTB write hits
system.cpu.itb.stage2_mmu.stage2_tlb.write_misses            0                       # DTB write misses
system.cpu.itb.walker.walkRequestOrigin_Requested::Data            0                       # Table walker requests started/completed, data/inst
system.cpu.itb.walker.walkRequestOrigin_Requested::Inst            0                       # Table walker requests started/completed, data/inst
system.cpu.itb.walker.walkRequestOrigin_Requested::total            0                       # Table walker requests started/completed, data/inst
system.cpu.itb.walker.walkRequestOrigin_Completed::Data            0                       # Table walker requests started/completed, data/inst
system.cpu.itb.walker.walkRequestOrigin_Completed::Inst            0                       # Table walker requests started/completed, data/inst
system.cpu.itb.walker.walkRequestOrigin_Completed::total            0                       # Table walker requests started/completed, data/inst
system.cpu.itb.walker.walkRequestOrigin::total            0                       # Table walker requests started/completed, data/inst
system.cpu.itb.walker.walks                         0                       # Table walker walks requested
system.cpu.itb.write_accesses                       0                       # DTB write accesses
system.cpu.itb.write_hits                           0                       # DTB write hits
system.cpu.itb.write_misses                         0                       # DTB write misses
system.cpu.numCycles                           105713                       # number of cpu cycles simulated
system.cpu.numFetchSuspends                         0                       # Number of times Execute suspended instruction fetching
system.cpu.numWorkItemsCompleted                    0                       # number of work items this cpu completed
system.cpu.numWorkItemsStarted                      0                       # number of work items this cpu started
system.cpu.op_class_0::No_OpClass                   0      0.00%      0.00% # Class of committed instruction
system.cpu.op_class_0::IntAlu                   12546     68.23%     68.23% # Class of committed instruction
system.cpu.op_class_0::IntMult                     83      0.45%     68.68% # Class of committed instruction
system.cpu.op_class_0::IntDiv                       0      0.00%     68.68% # Class of committed instruction
system.cpu.op_class_0::FloatAdd                     0      0.00%     68.68% # Class of committed instruction
system.cpu.op_class_0::FloatCmp                     0      0.00%     68.68% # Class of committed instruction
system.cpu.op_class_0::FloatCvt                     0      0.00%     68.68% # Class of committed instruction
system.cpu.op_class_0::FloatMult                    0      0.00%     68.68% # Class of committed instruction
system.cpu.op_class_0::FloatMultAcc                 0      0.00%     68.68% # Class of committed instruction
system.cpu.op_class_0::FloatDiv                     0      0.00%     68.68% # Class of committed instruction
system.cpu.op_class_0::FloatMisc                    0      0.00%     68.68% # Class of committed instruction
system.cpu.op_class_0::FloatSqrt                    0      0.00%     68.68% # Class of committed instruction
system.cpu.op_class_0::SimdAdd                      0      0.00%     68.68% # Class of committed instruction
system.cpu.op_class_0::SimdAddAcc                   0      0.00%     68.68% # Class of committed instruction
system.cpu.op_class_0::SimdAlu                      0      0.00%     68.68% # Class of committed instruction
system.cpu.op_class_0::SimdCmp                      0      0.00%     68.68% # Class of committed instruction
system.cpu.op_class_0::SimdCvt                      0      0.00%     68.68% # Class of committed instruction
system.cpu.op_class_0::SimdMisc                     0      0.00%     68.68% # Class of committed instruction
system.cpu.op_class_0::SimdMult                     0      0.00%     68.68% # Class of committed instruction
system.cpu.op_class_0::SimdMultAcc                  0      0.00%     68.68% # Class of committed instruction
system.cpu.op_class_0::SimdShift                    0      0.00%     68.68% # Class of committed instruction
system.cpu.op_class_0::SimdShiftAcc                 0      0.00%     68.68% # Class of committed instruction
system.cpu.op_class_0::SimdDiv                      0      0.00%     68.68% # Class of committed instruction
system.cpu.op_class_0::SimdSqrt                     0      0.00%     68.68% # Class of committed instruction
system.cpu.op_class_0::SimdFloatAdd                 0      0.00%     68.68% # Class of committed instruction
system.cpu.op_class_0::SimdFloatAlu                 0      0.00%     68.68% # Class of committed instruction
system.cpu.op_class_0::SimdFloatCmp                 0      0.00%     68.68% # Class of committed instruction
system.cpu.op_class_0::SimdFloatCvt                 0      0.00%     68.68% # Class of committed instruction
system.cpu.op_class_0::SimdFloatDiv                 0      0.00%     68.68% # Class of committed instruction
system.cpu.op_class_0::SimdFloatMisc                0      0.00%     68.68% # Class of committed instruction
system.cpu.op_class_0::SimdFloatMult                0      0.00%     68.68% # Class of committed instruction
system.cpu.op_class_0::SimdFloatMultAcc             0      0.00%     68.68% # Class of committed instruction
system.cpu.op_class_0::SimdFloatSqrt                0      0.00%     68.68% # Class of committed instruction
system.cpu.op_class_0::SimdReduceAdd                0      0.00%     68.68% # Class of committed instruction
system.cpu.op_class_0::SimdReduceAlu                0      0.00%     68.68% # Class of committed instruction
system.cpu.op_class_0::SimdReduceCmp                0      0.00%     68.68% # Class of committed instruction
system.cpu.op_class_0::SimdFloatReduceAdd            0      0.00%     68.68% # Class of committed instruction
system.cpu.op_class_0::SimdFloatReduceCmp            0      0.00%     68.68% # Class of committed instruction
system.cpu.op_class_0::SimdAes                      0      0.00%     68.68% # Class of committed instruction
system.cpu.op_class_0::SimdAesMix                   0      0.00%     68.68% # Class of committed instruction
system.cpu.op_class_0::SimdSha1Hash                 0      0.00%     68.68% # Class of committed instruction
system.cpu.op_class_0::SimdSha1Hash2                0      0.00%     68.68% # Class of committed instruction
system.cpu.op_class_0::SimdSha256Hash               0      0.00%     68.68% # Class of committed instruction
system.cpu.op_class_0::SimdSha256Hash2              0      0.00%     68.68% # Class of committed instruction
system.cpu.op_class_0::SimdShaSigma2                0      0.00%     68.68% # Class of committed instruction
system.cpu.op_class_0::SimdShaSigma3                0      0.00%     68.68% # Class of committed instruction
system.cpu.op_class_0::SimdPredAlu                  0      0.00%     68.68% # Class of committed instruction
system.cpu.op_class_0::MemRead                   2916     15.86%     84.54% # Class of committed instruction
system.cpu.op_class_0::MemWrite                  2842     15.46%    100.00% # Class of committed instruction
system.cpu.op_class_0::FloatMemRead                 0      0.00%    100.00% # Class of committed instruction
system.cpu.op_class_0::FloatMemWrite                0      0.00%    100.00% # Class of committed instruction
system.cpu.op_class_0::IprAccess                    0      0.00%    100.00% # Class of committed instruction
system.cpu.op_class_0::InstPrefetch                 0      0.00%    100.00% # Class of committed instruction
system.cpu.op_class_0::total                    18387                       # Class of committed instruction
system.cpu.tickCycles                           26471                       # Number of cycles that the object actually ticked
system.cpu.workload.numSyscalls                    22                       # Number of system calls
system.membus.snoop_filter.hit_multi_requests            3                       # Number of requests hitting in the snoop filter with multiple (>1) holders of the requested data.
system.membus.snoop_filter.hit_multi_snoops            0                       # Number of snoops hitting in the snoop filter with multiple (>1) holders of the requested data.
system.membus.snoop_filter.hit_single_requests          103                       # Number of requests hitting in the snoop filter with a single holder of the requested data.
system.membus.snoop_filter.hit_single_snoops            0                       # Number of snoops hitting in the snoop filter with a single holder of the requested data.
system.membus.snoop_filter.tot_requests           679                       # Total number of requests made to the snoop filter.
system.membus.snoop_filter.tot_snoops               0                       # Total number of snoops made to the snoop filter.
system.membus.pwrStateResidencyTicks::UNDEFINED     35202429                       # Cumulative time (in ticks) in various power states
system.membus.trans_dist::ReadResp                524                       # Transaction distribution
system.membus.trans_dist::WritebackClean           85                       # Transaction distribution
system.membus.trans_dist::ReadExReq                70                       # Transaction distribution
system.membus.trans_dist::ReadExResp               70                       # Transaction distribution
system.membus.trans_dist::ReadCleanReq            426                       # Transaction distribution
system.membus.trans_dist::ReadSharedReq            98                       # Transaction distribution
system.membus.pkt_count_system.cpu.icache.mem_side::system.mem_ctrls.port          937                       # Packet count per connected master and slave (bytes)
system.membus.pkt_count_system.cpu.dcache.mem_side::system.mem_ctrls.port          336                       # Packet count per connected master and slave (bytes)
system.membus.pkt_count::total                   1273                       # Packet count per connected master and slave (bytes)
system.membus.pkt_size_system.cpu.icache.mem_side::system.mem_ctrls.port        32704                       # Cumulative packet size per connected master and slave (bytes)
system.membus.pkt_size_system.cpu.dcache.mem_side::system.mem_ctrls.port        10752                       # Cumulative packet size per connected master and slave (bytes)
system.membus.pkt_size::total                   43456                       # Cumulative packet size per connected master and slave (bytes)
system.membus.snoops                                0                       # Total snoops (count)
system.membus.snoopTraffic                          0                       # Total snoop traffic (bytes)
system.membus.snoop_fanout::samples               594                       # Request fanout histogram
system.membus.snoop_fanout::mean             0.035354                       # Request fanout histogram
system.membus.snoop_fanout::stdev            0.184827                       # Request fanout histogram
system.membus.snoop_fanout::underflows              0      0.00%      0.00% # Request fanout histogram
system.membus.snoop_fanout::0                     573     96.46%     96.46% # Request fanout histogram
system.membus.snoop_fanout::1                      21      3.54%    100.00% # Request fanout histogram
system.membus.snoop_fanout::2                       0      0.00%    100.00% # Request fanout histogram
system.membus.snoop_fanout::overflows               0      0.00%    100.00% # Request fanout histogram
system.membus.snoop_fanout::min_value               0                       # Request fanout histogram
system.membus.snoop_fanout::max_value               1                       # Request fanout histogram
system.membus.snoop_fanout::total                 594                       # Request fanout histogram
system.membus.reqLayer0.occupancy             1366093                       # Layer occupancy (ticks)
system.membus.reqLayer0.utilization               3.9                       # Layer utilization (%)
system.membus.respLayer1.occupancy            2269075                       # Layer occupancy (ticks)
system.membus.respLayer1.utilization              6.4                       # Layer utilization (%)
system.membus.respLayer2.occupancy             905818                       # Layer occupancy (ticks)
system.membus.respLayer2.utilization              2.6                       # Layer utilization (%)
system.voltage_domain.voltage                       1                       # Voltage in Volts
system.clk_domain.clock                          1000                       # Clock period in ticks
system.cpu_voltage_domain.voltage                   1                       # Voltage in Volts
system.mem_ctrls.pwrStateResidencyTicks::UNDEFINED     35202429                       # Cumulative time (in ticks) in various power states
system.mem_ctrls.bytes_read::.cpu.inst          27264                       # Number of bytes read from this memory
system.mem_ctrls.bytes_read::.cpu.data          10752                       # Number of bytes read from this memory
system.mem_ctrls.bytes_read::total              38016                       # Number of bytes read from this memory
system.mem_ctrls.bytes_inst_read::.cpu.inst        27264                       # Number of instructions bytes read from this memory
system.mem_ctrls.bytes_inst_read::total         27264                       # Number of instructions bytes read from this memory
system.mem_ctrls.num_reads::.cpu.inst             426                       # Number of read requests responded to by this memory
system.mem_ctrls.num_reads::.cpu.data             168                       # Number of read requests responded to by this memory
system.mem_ctrls.num_reads::total                 594                       # Number of read requests responded to by this memory
system.mem_ctrls.bw_read::.cpu.inst         774492010                       # Total read bandwidth from this memory (bytes/s)
system.mem_ctrls.bw_read::.cpu.data         305433469                       # Total read bandwidth from this memory (bytes/s)
system.mem_ctrls.bw_read::total            1079925479                       # Total read bandwidth from this memory (bytes/s)
system.mem_ctrls.bw_inst_read::.cpu.inst    774492010                       # Instruction read bandwidth from this memory (bytes/s)
system.mem_ctrls.bw_inst_read::total        774492010                       # Instruction read bandwidth from this memory (bytes/s)
system.mem_ctrls.bw_total::.cpu.inst        774492010                       # Total bandwidth to/from this memory (bytes/s)
system.mem_ctrls.bw_total::.cpu.data        305433469                       # Total bandwidth to/from this memory (bytes/s)
system.mem_ctrls.bw_total::total           1079925479                       # Total bandwidth to/from this memory (bytes/s)
system.mem_ctrls.avgPriority_.writebacks::samples        82.00                       # Average QoS priority value for accepted requests
system.mem_ctrls.avgPriority_.cpu.inst::samples       412.00                       # Average QoS priority value for accepted requests
system.mem_ctrls.avgPriority_.cpu.data::samples       167.00                       # Average QoS priority value for accepted requests
system.mem_ctrls.priorityMinLatency      0.000000018750                       # per QoS priority minimum request to response latency (s)
system.mem_ctrls.priorityMaxLatency      0.000024150358                       # per QoS priority maximum request to response latency (s)
system.mem_ctrls.numReadWriteTurnArounds            3                       # Number of turnarounds from READ to WRITE
system.mem_ctrls.numWriteReadTurnArounds            3                       # Number of turnarounds from WRITE to READ
system.mem_ctrls.numStayReadState                1236                       # Number of times bus staying in READ state
system.mem_ctrls.numStayWriteState                 50                       # Number of times bus staying in WRITE state
system.mem_ctrls.readReqs                         594                       # Number of read requests accepted
system.mem_ctrls.writeReqs                         82                       # Number of write requests accepted
system.mem_ctrls.readBursts                       594                       # Number of DRAM read bursts, including those serviced by the write queue
system.mem_ctrls.writeBursts                       82                       # Number of DRAM write bursts, including those merged in the write queue
system.mem_ctrls.servicedByWrQ                     15                       # Number of DRAM read bursts serviced by the write queue
system.mem_ctrls.mergedWrBursts                     0                       # Number of DRAM write bursts merged with an existing one
system.mem_ctrls.neitherReadNorWriteReqs            0                       # Number of requests that are neither read nor write
system.mem_ctrls.perBankRdBursts::0                41                       # Per bank write bursts
system.mem_ctrls.perBankRdBursts::1                 3                       # Per bank write bursts
system.mem_ctrls.perBankRdBursts::2                27                       # Per bank write bursts
system.mem_ctrls.perBankRdBursts::3                38                       # Per bank write bursts
system.mem_ctrls.perBankRdBursts::4                48                       # Per bank write bursts
system.mem_ctrls.perBankRdBursts::5                54                       # Per bank write bursts
system.mem_ctrls.perBankRdBursts::6                42                       # Per bank write bursts
system.mem_ctrls.perBankRdBursts::7               108                       # Per bank write bursts
system.mem_ctrls.perBankRdBursts::8                57                       # Per bank write bursts
system.mem_ctrls.perBankRdBursts::9                76                       # Per bank write bursts
system.mem_ctrls.perBankRdBursts::10                6                       # Per bank write bursts
system.mem_ctrls.perBankRdBursts::11                9                       # Per bank write bursts
system.mem_ctrls.perBankRdBursts::12                4                       # Per bank write bursts
system.mem_ctrls.perBankRdBursts::13               17                       # Per bank write bursts
system.mem_ctrls.perBankRdBursts::14                5                       # Per bank write bursts
system.mem_ctrls.perBankRdBursts::15               44                       # Per bank write bursts
system.mem_ctrls.perBankWrBursts::0                 8                       # Per bank write bursts
system.mem_ctrls.perBankWrBursts::1                 0                       # Per bank write bursts
system.mem_ctrls.perBankWrBursts::2                 0                       # Per bank write bursts
system.mem_ctrls.perBankWrBursts::3                 0                       # Per bank write bursts
system.mem_ctrls.perBankWrBursts::4                 2                       # Per bank write bursts
system.mem_ctrls.perBankWrBursts::5                11                       # Per bank write bursts
system.mem_ctrls.perBankWrBursts::6                 7                       # Per bank write bursts
system.mem_ctrls.perBankWrBursts::7                 9                       # Per bank write bursts
system.mem_ctrls.perBankWrBursts::8                 5                       # Per bank write bursts
system.mem_ctrls.perBankWrBursts::9                10                       # Per bank write bursts
system.mem_ctrls.perBankWrBursts::10                0                       # Per bank write bursts
system.mem_ctrls.perBankWrBursts::11                1                       # Per bank write bursts
system.mem_ctrls.perBankWrBursts::12                0                       # Per bank write bursts
system.mem_ctrls.perBankWrBursts::13                0                       # Per bank write bursts
system.mem_ctrls.perBankWrBursts::14                0                       # Per bank write bursts
system.mem_ctrls.perBankWrBursts::15                0                       # Per bank write bursts
system.mem_ctrls.avgRdQLen                       1.18                       # Average read queue length when enqueuing
system.mem_ctrls.avgWrQLen                      11.71                       # Average write queue length when enqueuing
system.mem_ctrls.totQLat                      3933000                       # Total ticks spent queuing
system.mem_ctrls.totBusLat                    2895000                       # Total ticks spent in databus transfers
system.mem_ctrls.totMemAccLat                14789250                       # Total ticks spent from burst creation until serviced by the DRAM
system.mem_ctrls.avgQLat                      6792.75                       # Average queueing delay per DRAM burst
system.mem_ctrls.avgBusLat                    5000.00                       # Average bus latency per DRAM burst
system.mem_ctrls.avgMemAccLat                25542.75                       # Average memory access latency per DRAM burst
system.mem_ctrls.numRdRetry                         0                       # Number of times read queue was full causing retry
system.mem_ctrls.numWrRetry                         0                       # Number of times write queue was full causing retry
system.mem_ctrls.readRowHits                      467                       # Number of row buffer hits during reads
system.mem_ctrls.writeRowHits                      43                       # Number of row buffer hits during writes
system.mem_ctrls.readRowHitRate                 80.66                       # Row buffer hit rate for reads
system.mem_ctrls.writeRowHitRate                52.44                       # Row buffer hit rate for writes
system.mem_ctrls.readPktSize::0                     0                       # Read request sizes (log2)
system.mem_ctrls.readPktSize::1                     0                       # Read request sizes (log2)
system.mem_ctrls.readPktSize::2                     0                       # Read request sizes (log2)
system.mem_ctrls.readPktSize::3                     0                       # Read request sizes (log2)
system.mem_ctrls.readPktSize::4                     0                       # Read request sizes (log2)
system.mem_ctrls.readPktSize::5                     0                       # Read request sizes (log2)
system.mem_ctrls.readPktSize::6                   594                       # Read request sizes (log2)
system.mem_ctrls.writePktSize::0                    0                       # Write request sizes (log2)
system.mem_ctrls.writePktSize::1                    0                       # Write request sizes (log2)
system.mem_ctrls.writePktSize::2                    0                       # Write request sizes (log2)
system.mem_ctrls.writePktSize::3                    0                       # Write request sizes (log2)
system.mem_ctrls.writePktSize::4                    0                       # Write request sizes (log2)
system.mem_ctrls.writePktSize::5                    0                       # Write request sizes (log2)
system.mem_ctrls.writePktSize::6                   82                       # Write request sizes (log2)
system.mem_ctrls.rdQLenPdf::0                     483                       # What read queue length does an incoming req see
system.mem_ctrls.rdQLenPdf::1                      90                       # What read queue length does an incoming req see
system.mem_ctrls.rdQLenPdf::2                       6                       # What read queue length does an incoming req see
system.mem_ctrls.rdQLenPdf::3                       0                       # What read queue length does an incoming req see
system.mem_ctrls.rdQLenPdf::4                       0                       # What read queue length does an incoming req see
system.mem_ctrls.rdQLenPdf::5                       0                       # What read queue length does an incoming req see
system.mem_ctrls.rdQLenPdf::6                       0                       # What read queue length does an incoming req see
system.mem_ctrls.rdQLenPdf::7                       0                       # What read queue length does an incoming req see
system.mem_ctrls.rdQLenPdf::8                       0                       # What read queue length does an incoming req see
system.mem_ctrls.rdQLenPdf::9                       0                       # What read queue length does an incoming req see
system.mem_ctrls.rdQLenPdf::10                      0                       # What read queue length does an incoming req see
system.mem_ctrls.rdQLenPdf::11                      0                       # What read queue length does an incoming req see
system.mem_ctrls.rdQLenPdf::12                      0                       # What read queue length does an incoming req see
system.mem_ctrls.rdQLenPdf::13                      0                       # What read queue length does an incoming req see
system.mem_ctrls.rdQLenPdf::14                      0                       # What read queue length does an incoming req see
system.mem_ctrls.rdQLenPdf::15                      0                       # What read queue length does an incoming req see
system.mem_ctrls.rdQLenPdf::16                      0                       # What read queue length does an incoming req see
system.mem_ctrls.rdQLenPdf::17                      0                       # What read queue length does an incoming req see
system.mem_ctrls.rdQLenPdf::18                      0                       # What read queue length does an incoming req see
system.mem_ctrls.rdQLenPdf::19                      0                       # What read queue length does an incoming req see
system.mem_ctrls.rdQLenPdf::20                      0                       # What read queue length does an incoming req see
system.mem_ctrls.rdQLenPdf::21                      0                       # What read queue length does an incoming req see
system.mem_ctrls.rdQLenPdf::22                      0                       # What read queue length does an incoming req see
system.mem_ctrls.rdQLenPdf::23                      0                       # What read queue length does an incoming req see
system.mem_ctrls.rdQLenPdf::24                      0                       # What read queue length does an incoming req see
system.mem_ctrls.rdQLenPdf::25                      0                       # What read queue length does an incoming req see
system.mem_ctrls.rdQLenPdf::26                      0                       # What read queue length does an incoming req see
system.mem_ctrls.rdQLenPdf::27                      0                       # What read queue length does an incoming req see
system.mem_ctrls.rdQLenPdf::28                      0                       # What read queue length does an incoming req see
system.mem_ctrls.rdQLenPdf::29                      0                       # What read queue length does an incoming req see
system.mem_ctrls.rdQLenPdf::30                      0                       # What read queue length does an incoming req see
system.mem_ctrls.rdQLenPdf::31                      0                       # What read queue length does an incoming req see
system.mem_ctrls.wrQLenPdf::0                       1                       # What write queue length does an incoming req see
system.mem_ctrls.wrQLenPdf::1                       1                       # What write queue length does an incoming req see
system.mem_ctrls.wrQLenPdf::2                       1                       # What write queue length does an incoming req see
system.mem_ctrls.wrQLenPdf::3                       1                       # What write queue length does an incoming req see
system.mem_ctrls.wrQLenPdf::4                       1                       # What write queue length does an incoming req see
system.mem_ctrls.wrQLenPdf::5                       1                       # What write queue length does an incoming req see
system.mem_ctrls.wrQLenPdf::6                       1                       # What write queue length does an incoming req see
system.mem_ctrls.wrQLenPdf::7                       1                       # What write queue length does an incoming req see
system.mem_ctrls.wrQLenPdf::8                       1                       # What write queue length does an incoming req see
system.mem_ctrls.wrQLenPdf::9                       1                       # What write queue length does an incoming req see
system.mem_ctrls.wrQLenPdf::10                      1                       # What write queue length does an incoming req see
system.mem_ctrls.wrQLenPdf::11                      1                       # What write queue length does an incoming req see
system.mem_ctrls.wrQLenPdf::12                      1                       # What write queue length does an incoming req see
system.mem_ctrls.wrQLenPdf::13                      1                       # What write queue length does an incoming req see
system.mem_ctrls.wrQLenPdf::14                      1                       # What write queue length does an incoming req see
system.mem_ctrls.wrQLenPdf::15                      2                       # What write queue length does an incoming req see
system.mem_ctrls.wrQLenPdf::16                      3                       # What write queue length does an incoming req see
system.mem_ctrls.wrQLenPdf::17                      4                       # What write queue length does an incoming req see
system.mem_ctrls.wrQLenPdf::18                      4                       # What write queue length does an incoming req see
system.mem_ctrls.wrQLenPdf::19                      4                       # What write queue length does an incoming req see
system.mem_ctrls.wrQLenPdf::20                      5                       # What write queue length does an incoming req see
system.mem_ctrls.wrQLenPdf::21                      4                       # What write queue length does an incoming req see
system.mem_ctrls.wrQLenPdf::22                      4                       # What write queue length does an incoming req see
system.mem_ctrls.wrQLenPdf::23                      4                       # What write queue length does an incoming req see
system.mem_ctrls.wrQLenPdf::24                      4                       # What write queue length does an incoming req see
system.mem_ctrls.wrQLenPdf::25                      5                       # What write queue length does an incoming req see
system.mem_ctrls.wrQLenPdf::26                      4                       # What write queue length does an incoming req see
system.mem_ctrls.wrQLenPdf::27                      4                       # What write queue length does an incoming req see
system.mem_ctrls.wrQLenPdf::28                      4                       # What write queue length does an incoming req see
system.mem_ctrls.wrQLenPdf::29                      3                       # What write queue length does an incoming req see
system.mem_ctrls.wrQLenPdf::30                      3                       # What write queue length does an incoming req see
system.mem_ctrls.wrQLenPdf::31                      3                       # What write queue length does an incoming req see
system.mem_ctrls.wrQLenPdf::32                      3                       # What write queue length does an incoming req see
system.mem_ctrls.wrQLenPdf::33                      0                       # What write queue length does an incoming req see
system.mem_ctrls.wrQLenPdf::34                      0                       # What write queue length does an incoming req see
system.mem_ctrls.wrQLenPdf::35                      0                       # What write queue length does an incoming req see
system.mem_ctrls.wrQLenPdf::36                      0                       # What write queue length does an incoming req see
system.mem_ctrls.wrQLenPdf::37                      0                       # What write queue length does an incoming req see
system.mem_ctrls.wrQLenPdf::38                      0                       # What write queue length does an incoming req see
system.mem_ctrls.wrQLenPdf::39                      0                       # What write queue length does an incoming req see
system.mem_ctrls.wrQLenPdf::40                      0                       # What write queue length does an incoming req see
system.mem_ctrls.wrQLenPdf::41                      0                       # What write queue length does an incoming req see
system.mem_ctrls.wrQLenPdf::42                      0                       # What write queue length does an incoming req see
system.mem_ctrls.wrQLenPdf::43                      0                       # What write queue length does an incoming req see
system.mem_ctrls.wrQLenPdf::44                      0                       # What write queue length does an incoming req see
system.mem_ctrls.wrQLenPdf::45                      0                       # What write queue length does an incoming req see
system.mem_ctrls.wrQLenPdf::46                      0                       # What write queue length does an incoming req see
system.mem_ctrls.wrQLenPdf::47                      0                       # What write queue length does an incoming req see
system.mem_ctrls.wrQLenPdf::48                      0                       # What write queue length does an incoming req see
system.mem_ctrls.wrQLenPdf::49                      0                       # What write queue length does an incoming req see
system.mem_ctrls.wrQLenPdf::50                      0                       # What write queue length does an incoming req see
system.mem_ctrls.wrQLenPdf::51                      0                       # What write queue length does an incoming req see
system.mem_ctrls.wrQLenPdf::52                      0                       # What write queue length does an incoming req see
system.mem_ctrls.wrQLenPdf::53                      0                       # What write queue length does an incoming req see
system.mem_ctrls.wrQLenPdf::54                      0                       # What write queue length does an incoming req see
system.mem_ctrls.wrQLenPdf::55                      0                       # What write queue length does an incoming req see
system.mem_ctrls.wrQLenPdf::56                      0                       # What write queue length does an incoming req see
system.mem_ctrls.wrQLenPdf::57                      0                       # What write queue length does an incoming req see
system.mem_ctrls.wrQLenPdf::58                      0                       # What write queue length does an incoming req see
system.mem_ctrls.wrQLenPdf::59                      0                       # What write queue length does an incoming req see
system.mem_ctrls.wrQLenPdf::60                      0                       # What write queue length does an incoming req see
system.mem_ctrls.wrQLenPdf::61                      0                       # What write queue length does an incoming req see
system.mem_ctrls.wrQLenPdf::62                      0                       # What write queue length does an incoming req see
system.mem_ctrls.wrQLenPdf::63                      0                       # What write queue length does an incoming req see
system.mem_ctrls.bytesPerActivate::samples          112                       # Bytes accessed per row activation
system.mem_ctrls.bytesPerActivate::mean    342.285714                       # Bytes accessed per row activation
system.mem_ctrls.bytesPerActivate::gmean   230.659836                       # Bytes accessed per row activation
system.mem_ctrls.bytesPerActivate::stdev   310.187256                       # Bytes accessed per row activation
system.mem_ctrls.bytesPerActivate::0-127           24     21.43%     21.43% # Bytes accessed per row activation
system.mem_ctrls.bytesPerActivate::128-255           28     25.00%     46.43% # Bytes accessed per row activation
system.mem_ctrls.bytesPerActivate::256-383           26     23.21%     69.64% # Bytes accessed per row activation
system.mem_ctrls.bytesPerActivate::384-511            9      8.04%     77.68% # Bytes accessed per row activation
system.mem_ctrls.bytesPerActivate::512-639            5      4.46%     82.14% # Bytes accessed per row activation
system.mem_ctrls.bytesPerActivate::640-767            3      2.68%     84.82% # Bytes accessed per row activation
system.mem_ctrls.bytesPerActivate::768-895            1      0.89%     85.71% # Bytes accessed per row activation
system.mem_ctrls.bytesPerActivate::896-1023            4      3.57%     89.29% # Bytes accessed per row activation
system.mem_ctrls.bytesPerActivate::1024-1151           12     10.71%    100.00% # Bytes accessed per row activation
system.mem_ctrls.bytesPerActivate::total          112                       # Bytes accessed per row activation
system.mem_ctrls.rdPerTurnAround::samples            3                       # Reads before turning the bus around for writes
system.mem_ctrls.rdPerTurnAround::mean     166.333333                       # Reads before turning the bus around for writes
system.mem_ctrls.rdPerTurnAround::gmean     91.226021                       # Reads before turning the bus around for writes
system.mem_ctrls.rdPerTurnAround::stdev    203.721215                       # Reads before turning the bus around for writes
system.mem_ctrls.rdPerTurnAround::16-31             1     33.33%     33.33% # Reads before turning the bus around for writes
system.mem_ctrls.rdPerTurnAround::64-79             1     33.33%     66.67% # Reads before turning the bus around for writes
system.mem_ctrls.rdPerTurnAround::400-415            1     33.33%    100.00% # Reads before turning the bus around for writes
system.mem_ctrls.rdPerTurnAround::total             3                       # Reads before turning the bus around for writes
system.mem_ctrls.wrPerTurnAround::samples            3                       # Writes before turning the bus around for reads
system.mem_ctrls.wrPerTurnAround::mean      17.666667                       # Writes before turning the bus around for reads
system.mem_ctrls.wrPerTurnAround::gmean     17.518077                       # Writes before turning the bus around for reads
system.mem_ctrls.wrPerTurnAround::stdev      2.886751                       # Writes before turning the bus around for reads
system.mem_ctrls.wrPerTurnAround::16                2     66.67%     66.67% # Writes before turning the bus around for reads
system.mem_ctrls.wrPerTurnAround::21                1     33.33%    100.00% # Writes before turning the bus around for reads
system.mem_ctrls.wrPerTurnAround::total             3                       # Writes before turning the bus around for reads
system.mem_ctrls.bytesReadDRAM                  37056                       # Total number of bytes read from DRAM
system.mem_ctrls.bytesReadWrQ                     960                       # Total number of bytes read from write queue
system.mem_ctrls.bytesWritten                    3392                       # Total number of bytes written to DRAM
system.mem_ctrls.bytesReadSys                   38016                       # Total read bytes from the system interface side
system.mem_ctrls.bytesWrittenSys                 5248                       # Total written bytes from the system interface side
system.mem_ctrls.avgRdBW                      1052.65                       # Average DRAM read bandwidth in MiByte/s
system.mem_ctrls.avgWrBW                        96.36                       # Average achieved write bandwidth in MiByte/s
system.mem_ctrls.avgRdBWSys                   1079.93                       # Average system read bandwidth in MiByte/s
system.mem_ctrls.avgWrBWSys                    149.08                       # Average system write bandwidth in MiByte/s
system.mem_ctrls.peakBW                      12800.00                       # Theoretical peak bandwidth in MiByte/s
system.mem_ctrls.busUtil                         8.98                       # Data bus utilization in percentage
system.mem_ctrls.busUtilRead                     8.22                       # Data bus utilization in percentage for reads
system.mem_ctrls.busUtilWrite                    0.75                       # Data bus utilization in percentage for writes
system.mem_ctrls.totGap                      35146152                       # Total gap between requests
system.mem_ctrls.avgGap                      51991.35                       # Average gap between requests
system.mem_ctrls.masterReadBytes::.cpu.inst        26368                       # Per-master bytes read from memory
system.mem_ctrls.masterReadBytes::.cpu.data        10688                       # Per-master bytes read from memory
system.mem_ctrls.masterWriteBytes::.writebacks         3392                       # Per-master bytes write to memory
system.mem_ctrls.masterReadRate::.cpu.inst 749039221.128746509552                       # Per-master bytes read from memory rate (Bytes/sec)
system.mem_ctrls.masterReadRate::.cpu.data 303615412.447817146778                       # Per-master bytes read from memory rate (Bytes/sec)
system.mem_ctrls.masterWriteRate::.writebacks 96356987.184037789702                       # Per-master bytes write to memory rate (Bytes/sec)
system.mem_ctrls.masterReadAccesses::.cpu.inst          426                       # Per-master read serviced memory accesses
system.mem_ctrls.masterReadAccesses::.cpu.data          168                       # Per-master read serviced memory accesses
system.mem_ctrls.masterWriteAccesses::.writebacks           82                       # Per-master write serviced memory accesses
system.mem_ctrls.masterReadTotalLat::.cpu.inst     10171265                       # Per-master read total memory access latency
system.mem_ctrls.masterReadTotalLat::.cpu.data      4617985                       # Per-master read total memory access latency
system.mem_ctrls.masterWriteTotalLat::.writebacks    223974724                       # Per-master write total memory access latency
system.mem_ctrls.masterReadAvgLat::.cpu.inst     23876.21                       # Per-master read average memory access latency
system.mem_ctrls.masterReadAvgLat::.cpu.data     27488.01                       # Per-master read average memory access latency
system.mem_ctrls.masterWriteAvgLat::.writebacks   2731399.07                       # Per-master write average memory access latency
system.mem_ctrls.pageHitRate                    77.16                       # Row buffer hit rate, read and write combined
system.mem_ctrls.rank1.actEnergy               371280                       # Energy for activate commands per rank (pJ)
system.mem_ctrls.rank1.preEnergy               182160                       # Energy for precharge commands per rank (pJ)
system.mem_ctrls.rank1.readEnergy             1556520                       # Energy for read commands per rank (pJ)
system.mem_ctrls.rank1.writeEnergy              83520                       # Energy for write commands per rank (pJ)
system.mem_ctrls.rank1.refreshEnergy     2458560.000000                       # Energy for refresh commands per rank (pJ)
system.mem_ctrls.rank1.actBackEnergy         15117540                       # Energy for active background per rank (pJ)
system.mem_ctrls.rank1.preBackEnergy           787200                       # Energy for precharge background per rank (pJ)
system.mem_ctrls.rank1.actPowerDownEnergy            0                       # Energy for active power-down per rank (pJ)
system.mem_ctrls.rank1.prePowerDownEnergy            0                       # Energy for precharge power-down per rank (pJ)
system.mem_ctrls.rank1.selfRefreshEnergy            0                       # Energy for self refresh per rank (pJ)
system.mem_ctrls.rank1.totalEnergy           20556780                       # Total energy per rank (pJ)
system.mem_ctrls.rank1.averagePower        583.959135                       # Core power per rank (mW)
system.mem_ctrls.rank1.totalIdleTime                0                       # Total Idle time Per DRAM Rank
system.mem_ctrls.rank1.memoryStateTime::IDLE      1939538                       # Time in different power states
system.mem_ctrls.rank1.memoryStateTime::REF      1040000                       # Time in different power states
system.mem_ctrls.rank1.memoryStateTime::SREF            0                       # Time in different power states
system.mem_ctrls.rank1.memoryStateTime::PRE_PDN            0                       # Time in different power states
system.mem_ctrls.rank1.memoryStateTime::ACT     32222891                       # Time in different power states
system.mem_ctrls.rank1.memoryStateTime::ACT_PDN            0                       # Time in different power states
system.mem_ctrls.rank0.actEnergy               499800                       # Energy for activate commands per rank (pJ)
system.mem_ctrls.rank0.preEnergy               242880                       # Energy for precharge commands per rank (pJ)
system.mem_ctrls.rank0.readEnergy             2577540                       # Energy for read commands per rank (pJ)
system.mem_ctrls.rank0.writeEnergy             193140                       # Energy for write commands per rank (pJ)
system.mem_ctrls.rank0.refreshEnergy     2458560.000000                       # Energy for refresh commands per rank (pJ)
system.mem_ctrls.rank0.actBackEnergy         15230400                       # Energy for active background per rank (pJ)
system.mem_ctrls.rank0.preBackEnergy           692160                       # Energy for precharge background per rank (pJ)
system.mem_ctrls.rank0.actPowerDownEnergy            0                       # Energy for active power-down per rank (pJ)
system.mem_ctrls.rank0.prePowerDownEnergy            0                       # Energy for precharge power-down per rank (pJ)
system.mem_ctrls.rank0.selfRefreshEnergy            0                       # Energy for self refresh per rank (pJ)
system.mem_ctrls.rank0.totalEnergy           21894480                       # Total energy per rank (pJ)
system.mem_ctrls.rank0.averagePower        621.959354                       # Core power per rank (mW)
system.mem_ctrls.rank0.totalIdleTime                0                       # Total Idle time Per DRAM Rank
system.mem_ctrls.rank0.memoryStateTime::IDLE      1680254                       # Time in different power states
system.mem_ctrls.rank0.memoryStateTime::REF      1040000                       # Time in different power states
system.mem_ctrls.rank0.memoryStateTime::SREF            0                       # Time in different power states
system.mem_ctrls.rank0.memoryStateTime::PRE_PDN            0                       # Time in different power states
system.mem_ctrls.rank0.memoryStateTime::ACT     32482175                       # Time in different power states
system.mem_ctrls.rank0.memoryStateTime::ACT_PDN            0                       # Time in different power states
system.cpu_clk_domain.clock                       333                       # Clock period in ticks
system.cpu.pwrStateResidencyTicks::ON        35202429                       # Cumulative time (in ticks) in various power states
system.cpu.icache.pwrStateResidencyTicks::UNDEFINED     35202429                       # Cumulative time (in ticks) in various power states
system.cpu.icache.demand_hits::.cpu.inst         5704                       # number of demand (read+write) hits
system.cpu.icache.demand_hits::total             5704                       # number of demand (read+write) hits
system.cpu.icache.overall_hits::.cpu.inst         5704                       # number of overall hits
system.cpu.icache.overall_hits::total            5704                       # number of overall hits
system.cpu.icache.demand_misses::.cpu.inst          426                       # number of demand (read+write) misses
system.cpu.icache.demand_misses::total            426                       # number of demand (read+write) misses
system.cpu.icache.overall_misses::.cpu.inst          426                       # number of overall misses
system.cpu.icache.overall_misses::total           426                       # number of overall misses
system.cpu.icache.demand_miss_latency::.cpu.inst     24010299                       # number of demand (read+write) miss cycles
system.cpu.icache.demand_miss_latency::total     24010299                       # number of demand (read+write) miss cycles
system.cpu.icache.overall_miss_latency::.cpu.inst     24010299                       # number of overall miss cycles
system.cpu.icache.overall_miss_latency::total     24010299                       # number of overall miss cycles
system.cpu.icache.demand_accesses::.cpu.inst         6130                       # number of demand (read+write) accesses
system.cpu.icache.demand_accesses::total         6130                       # number of demand (read+write) accesses
system.cpu.icache.overall_accesses::.cpu.inst         6130                       # number of overall (read+write) accesses
system.cpu.icache.overall_accesses::total         6130                       # number of overall (read+write) accesses
system.cpu.icache.demand_miss_rate::.cpu.inst     0.069494                       # miss rate for demand accesses
system.cpu.icache.demand_miss_rate::total     0.069494                       # miss rate for demand accesses
system.cpu.icache.overall_miss_rate::.cpu.inst     0.069494                       # miss rate for overall accesses
system.cpu.icache.overall_miss_rate::total     0.069494                       # miss rate for overall accesses
system.cpu.icache.demand_avg_miss_latency::.cpu.inst 56362.204225                       # average overall miss latency
system.cpu.icache.demand_avg_miss_latency::total 56362.204225                       # average overall miss latency
system.cpu.icache.overall_avg_miss_latency::.cpu.inst 56362.204225                       # average overall miss latency
system.cpu.icache.overall_avg_miss_latency::total 56362.204225                       # average overall miss latency
system.cpu.icache.blocked_cycles::no_mshrs            0                       # number of cycles access was blocked
system.cpu.icache.blocked_cycles::no_targets            0                       # number of cycles access was blocked
system.cpu.icache.blocked::no_mshrs                 0                       # number of cycles access was blocked
system.cpu.icache.blocked::no_targets               0                       # number of cycles access was blocked
system.cpu.icache.avg_blocked_cycles::no_mshrs          nan                       # average number of cycles each access was blocked
system.cpu.icache.avg_blocked_cycles::no_targets          nan                       # average number of cycles each access was blocked
system.cpu.icache.writebacks::.writebacks           85                       # number of writebacks
system.cpu.icache.writebacks::total                85                       # number of writebacks
system.cpu.icache.demand_mshr_misses::.cpu.inst          426                       # number of demand (read+write) MSHR misses
system.cpu.icache.demand_mshr_misses::total          426                       # number of demand (read+write) MSHR misses
system.cpu.icache.overall_mshr_misses::.cpu.inst          426                       # number of overall MSHR misses
system.cpu.icache.overall_mshr_misses::total          426                       # number of overall MSHR misses
system.cpu.icache.demand_mshr_miss_latency::.cpu.inst     23657504                       # number of demand (read+write) MSHR miss cycles
system.cpu.icache.demand_mshr_miss_latency::total     23657504                       # number of demand (read+write) MSHR miss cycles
system.cpu.icache.overall_mshr_miss_latency::.cpu.inst     23657504                       # number of overall MSHR miss cycles
system.cpu.icache.overall_mshr_miss_latency::total     23657504                       # number of overall MSHR miss cycles
system.cpu.icache.demand_mshr_miss_rate::.cpu.inst     0.069494                       # mshr miss rate for demand accesses
system.cpu.icache.demand_mshr_miss_rate::total     0.069494                       # mshr miss rate for demand accesses
system.cpu.icache.overall_mshr_miss_rate::.cpu.inst     0.069494                       # mshr miss rate for overall accesses
system.cpu.icache.overall_mshr_miss_rate::total     0.069494                       # mshr miss rate for overall accesses
system.cpu.icache.demand_avg_mshr_miss_latency::.cpu.inst 55534.046948                       # average overall mshr miss latency
system.cpu.icache.demand_avg_mshr_miss_latency::total 55534.046948                       # average overall mshr miss latency
system.cpu.icache.overall_avg_mshr_miss_latency::.cpu.inst 55534.046948                       # average overall mshr miss latency
system.cpu.icache.overall_avg_mshr_miss_latency::total 55534.046948                       # average overall mshr miss latency
system.cpu.icache.replacements                     85                       # number of replacements
system.cpu.icache.ReadReq_hits::.cpu.inst         5704                       # number of ReadReq hits
system.cpu.icache.ReadReq_hits::total            5704                       # number of ReadReq hits
system.cpu.icache.ReadReq_misses::.cpu.inst          426                       # number of ReadReq misses
system.cpu.icache.ReadReq_misses::total           426                       # number of ReadReq misses
system.cpu.icache.ReadReq_miss_latency::.cpu.inst     24010299                       # number of ReadReq miss cycles
system.cpu.icache.ReadReq_miss_latency::total     24010299                       # number of ReadReq miss cycles
system.cpu.icache.ReadReq_accesses::.cpu.inst         6130                       # number of ReadReq accesses(hits+misses)
system.cpu.icache.ReadReq_accesses::total         6130                       # number of ReadReq accesses(hits+misses)
system.cpu.icache.ReadReq_miss_rate::.cpu.inst     0.069494                       # miss rate for ReadReq accesses
system.cpu.icache.ReadReq_miss_rate::total     0.069494                       # miss rate for ReadReq accesses
system.cpu.icache.ReadReq_avg_miss_latency::.cpu.inst 56362.204225                       # average ReadReq miss latency
system.cpu.icache.ReadReq_avg_miss_latency::total 56362.204225                       # average ReadReq miss latency
system.cpu.icache.ReadReq_mshr_misses::.cpu.inst          426                       # number of ReadReq MSHR misses
system.cpu.icache.ReadReq_mshr_misses::total          426                       # number of ReadReq MSHR misses
system.cpu.icache.ReadReq_mshr_miss_latency::.cpu.inst     23657504                       # number of ReadReq MSHR miss cycles
system.cpu.icache.ReadReq_mshr_miss_latency::total     23657504                       # number of ReadReq MSHR miss cycles
system.cpu.icache.ReadReq_mshr_miss_rate::.cpu.inst     0.069494                       # mshr miss rate for ReadReq accesses
system.cpu.icache.ReadReq_mshr_miss_rate::total     0.069494                       # mshr miss rate for ReadReq accesses
system.cpu.icache.ReadReq_avg_mshr_miss_latency::.cpu.inst 55534.046948                       # average ReadReq mshr miss latency
system.cpu.icache.ReadReq_avg_mshr_miss_latency::total 55534.046948                       # average ReadReq mshr miss latency
system.cpu.icache.tags.pwrStateResidencyTicks::UNDEFINED     35202429                       # Cumulative time (in ticks) in various power states
system.cpu.icache.tags.tagsinuse           194.645700                       # Cycle average of tags in use
system.cpu.icache.tags.total_refs                6130                       # Total number of references to valid blocks.
system.cpu.icache.tags.sampled_refs               426                       # Sample count of references to valid blocks.
system.cpu.icache.tags.avg_refs             14.389671                       # Average number of references to valid blocks.
system.cpu.icache.tags.warmup_cycle             77000                       # Cycle when the warmup percentage was hit.
system.cpu.icache.tags.occ_blocks::.cpu.inst   194.645700                       # Average occupied blocks per requestor
system.cpu.icache.tags.occ_percent::.cpu.inst     0.380167                       # Average percentage of cache occupancy
system.cpu.icache.tags.occ_percent::total     0.380167                       # Average percentage of cache occupancy
system.cpu.icache.tags.occ_task_id_blocks::1024          341                       # Occupied blocks per task id
system.cpu.icache.tags.age_task_id_blocks_1024::0          101                       # Occupied blocks per task id
system.cpu.icache.tags.age_task_id_blocks_1024::1          240                       # Occupied blocks per task id
system.cpu.icache.tags.occ_task_id_percent::1024     0.666016                       # Percentage of cache occupancy per task id
system.cpu.icache.tags.tag_accesses             12686                       # Number of tag accesses
system.cpu.icache.tags.data_accesses            12686                       # Number of data accesses
system.cpu.dtb.walker.pwrStateResidencyTicks::UNDEFINED     35202429                       # Cumulative time (in ticks) in various power states
system.cpu.dtb.stage2_mmu.stage2_tlb.walker.pwrStateResidencyTicks::UNDEFINED     35202429                       # Cumulative time (in ticks) in various power states
system.cpu.dcache.pwrStateResidencyTicks::UNDEFINED     35202429                       # Cumulative time (in ticks) in various power states
system.cpu.dcache.demand_hits::.cpu.data         5576                       # number of demand (read+write) hits
system.cpu.dcache.demand_hits::total             5576                       # number of demand (read+write) hits
system.cpu.dcache.overall_hits::.cpu.data         5596                       # number of overall hits
system.cpu.dcache.overall_hits::total            5596                       # number of overall hits
system.cpu.dcache.demand_misses::.cpu.data          208                       # number of demand (read+write) misses
system.cpu.dcache.demand_misses::total            208                       # number of demand (read+write) misses
system.cpu.dcache.overall_misses::.cpu.data          220                       # number of overall misses
system.cpu.dcache.overall_misses::total           220                       # number of overall misses
system.cpu.dcache.demand_miss_latency::.cpu.data     12391796                       # number of demand (read+write) miss cycles
system.cpu.dcache.demand_miss_latency::total     12391796                       # number of demand (read+write) miss cycles
system.cpu.dcache.overall_miss_latency::.cpu.data     12391796                       # number of overall miss cycles
system.cpu.dcache.overall_miss_latency::total     12391796                       # number of overall miss cycles
system.cpu.dcache.demand_accesses::.cpu.data         5784                       # number of demand (read+write) accesses
system.cpu.dcache.demand_accesses::total         5784                       # number of demand (read+write) accesses
system.cpu.dcache.overall_accesses::.cpu.data         5816                       # number of overall (read+write) accesses
system.cpu.dcache.overall_accesses::total         5816                       # number of overall (read+write) accesses
system.cpu.dcache.demand_miss_rate::.cpu.data     0.035961                       # miss rate for demand accesses
system.cpu.dcache.demand_miss_rate::total     0.035961                       # miss rate for demand accesses
system.cpu.dcache.overall_miss_rate::.cpu.data     0.037827                       # miss rate for overall accesses
system.cpu.dcache.overall_miss_rate::total     0.037827                       # miss rate for overall accesses
system.cpu.dcache.demand_avg_miss_latency::.cpu.data 59575.942308                       # average overall miss latency
system.cpu.dcache.demand_avg_miss_latency::total 59575.942308                       # average overall miss latency
system.cpu.dcache.overall_avg_miss_latency::.cpu.data 56326.345455                       # average overall miss latency
system.cpu.dcache.overall_avg_miss_latency::total 56326.345455                       # average overall miss latency
system.cpu.dcache.blocked_cycles::no_mshrs            0                       # number of cycles access was blocked
system.cpu.dcache.blocked_cycles::no_targets            0                       # number of cycles access was blocked
system.cpu.dcache.blocked::no_mshrs                 0                       # number of cycles access was blocked
system.cpu.dcache.blocked::no_targets               0                       # number of cycles access was blocked
system.cpu.dcache.avg_blocked_cycles::no_mshrs          nan                       # average number of cycles each access was blocked
system.cpu.dcache.avg_blocked_cycles::no_targets          nan                       # average number of cycles each access was blocked
system.cpu.dcache.demand_mshr_hits::.cpu.data           51                       # number of demand (read+write) MSHR hits
system.cpu.dcache.demand_mshr_hits::total           51                       # number of demand (read+write) MSHR hits
system.cpu.dcache.overall_mshr_hits::.cpu.data           51                       # number of overall MSHR hits
system.cpu.dcache.overall_mshr_hits::total           51                       # number of overall MSHR hits
system.cpu.dcache.demand_mshr_misses::.cpu.data          157                       # number of demand (read+write) MSHR misses
system.cpu.dcache.demand_mshr_misses::total          157                       # number of demand (read+write) MSHR misses
system.cpu.dcache.overall_mshr_misses::.cpu.data          166                       # number of overall MSHR misses
system.cpu.dcache.overall_mshr_misses::total          166                       # number of overall MSHR misses
system.cpu.dcache.demand_mshr_miss_latency::.cpu.data      9301568                       # number of demand (read+write) MSHR miss cycles
system.cpu.dcache.demand_mshr_miss_latency::total      9301568                       # number of demand (read+write) MSHR miss cycles
system.cpu.dcache.overall_mshr_miss_latency::.cpu.data      9828455                       # number of overall MSHR miss cycles
system.cpu.dcache.overall_mshr_miss_latency::total      9828455                       # number of overall MSHR miss cycles
system.cpu.dcache.demand_mshr_miss_rate::.cpu.data     0.027144                       # mshr miss rate for demand accesses
system.cpu.dcache.demand_mshr_miss_rate::total     0.027144                       # mshr miss rate for demand accesses
system.cpu.dcache.overall_mshr_miss_rate::.cpu.data     0.028542                       # mshr miss rate for overall accesses
system.cpu.dcache.overall_mshr_miss_rate::total     0.028542                       # mshr miss rate for overall accesses
system.cpu.dcache.demand_avg_mshr_miss_latency::.cpu.data 59245.656051                       # average overall mshr miss latency
system.cpu.dcache.demand_avg_mshr_miss_latency::total 59245.656051                       # average overall mshr miss latency
system.cpu.dcache.overall_avg_mshr_miss_latency::.cpu.data 59207.560241                       # average overall mshr miss latency
system.cpu.dcache.overall_avg_mshr_miss_latency::total 59207.560241                       # average overall mshr miss latency
system.cpu.dcache.replacements                      0                       # number of replacements
system.cpu.dcache.ReadReq_hits::.cpu.data         2969                       # number of ReadReq hits
system.cpu.dcache.ReadReq_hits::total            2969                       # number of ReadReq hits
system.cpu.dcache.ReadReq_misses::.cpu.data           91                       # number of ReadReq misses
system.cpu.dcache.ReadReq_misses::total            91                       # number of ReadReq misses
system.cpu.dcache.ReadReq_miss_latency::.cpu.data      5378628                       # number of ReadReq miss cycles
system.cpu.dcache.ReadReq_miss_latency::total      5378628                       # number of ReadReq miss cycles
system.cpu.dcache.ReadReq_accesses::.cpu.data         3060                       # number of ReadReq accesses(hits+misses)
system.cpu.dcache.ReadReq_accesses::total         3060                       # number of ReadReq accesses(hits+misses)
system.cpu.dcache.ReadReq_miss_rate::.cpu.data     0.029739                       # miss rate for ReadReq accesses
system.cpu.dcache.ReadReq_miss_rate::total     0.029739                       # miss rate for ReadReq accesses
system.cpu.dcache.ReadReq_avg_miss_latency::.cpu.data 59105.802198                       # average ReadReq miss latency
system.cpu.dcache.ReadReq_avg_miss_latency::total 59105.802198                       # average ReadReq miss latency
system.cpu.dcache.ReadReq_mshr_hits::.cpu.data            4                       # number of ReadReq MSHR hits
system.cpu.dcache.ReadReq_mshr_hits::total            4                       # number of ReadReq MSHR hits
system.cpu.dcache.ReadReq_mshr_misses::.cpu.data           87                       # number of ReadReq MSHR misses
system.cpu.dcache.ReadReq_mshr_misses::total           87                       # number of ReadReq MSHR misses
system.cpu.dcache.ReadReq_mshr_miss_latency::.cpu.data      5070744                       # number of ReadReq MSHR miss cycles
system.cpu.dcache.ReadReq_mshr_miss_latency::total      5070744                       # number of ReadReq MSHR miss cycles
system.cpu.dcache.ReadReq_mshr_miss_rate::.cpu.data     0.028431                       # mshr miss rate for ReadReq accesses
system.cpu.dcache.ReadReq_mshr_miss_rate::total     0.028431                       # mshr miss rate for ReadReq accesses
system.cpu.dcache.ReadReq_avg_mshr_miss_latency::.cpu.data 58284.413793                       # average ReadReq mshr miss latency
system.cpu.dcache.ReadReq_avg_mshr_miss_latency::total 58284.413793                       # average ReadReq mshr miss latency
system.cpu.dcache.WriteReq_hits::.cpu.data         2607                       # number of WriteReq hits
system.cpu.dcache.WriteReq_hits::total           2607                       # number of WriteReq hits
system.cpu.dcache.WriteReq_misses::.cpu.data          117                       # number of WriteReq misses
system.cpu.dcache.WriteReq_misses::total          117                       # number of WriteReq misses
system.cpu.dcache.WriteReq_miss_latency::.cpu.data      7013168                       # number of WriteReq miss cycles
system.cpu.dcache.WriteReq_miss_latency::total      7013168                       # number of WriteReq miss cycles
system.cpu.dcache.WriteReq_accesses::.cpu.data         2724                       # number of WriteReq accesses(hits+misses)
system.cpu.dcache.WriteReq_accesses::total         2724                       # number of WriteReq accesses(hits+misses)
system.cpu.dcache.WriteReq_miss_rate::.cpu.data     0.042952                       # miss rate for WriteReq accesses
system.cpu.dcache.WriteReq_miss_rate::total     0.042952                       # miss rate for WriteReq accesses
system.cpu.dcache.WriteReq_avg_miss_latency::.cpu.data 59941.606838                       # average WriteReq miss latency
system.cpu.dcache.WriteReq_avg_miss_latency::total 59941.606838                       # average WriteReq miss latency
system.cpu.dcache.WriteReq_mshr_hits::.cpu.data           47                       # number of WriteReq MSHR hits
system.cpu.dcache.WriteReq_mshr_hits::total           47                       # number of WriteReq MSHR hits
system.cpu.dcache.WriteReq_mshr_misses::.cpu.data           70                       # number of WriteReq MSHR misses
system.cpu.dcache.WriteReq_mshr_misses::total           70                       # number of WriteReq MSHR misses
system.cpu.dcache.WriteReq_mshr_miss_latency::.cpu.data      4230824                       # number of WriteReq MSHR miss cycles
system.cpu.dcache.WriteReq_mshr_miss_latency::total      4230824                       # number of WriteReq MSHR miss cycles
system.cpu.dcache.WriteReq_mshr_miss_rate::.cpu.data     0.025698                       # mshr miss rate for WriteReq accesses
system.cpu.dcache.WriteReq_mshr_miss_rate::total     0.025698                       # mshr miss rate for WriteReq accesses
system.cpu.dcache.WriteReq_avg_mshr_miss_latency::.cpu.data 60440.342857                       # average WriteReq mshr miss latency
system.cpu.dcache.WriteReq_avg_mshr_miss_latency::total 60440.342857                       # average WriteReq mshr miss latency
system.cpu.dcache.SoftPFReq_hits::.cpu.data           20                       # number of SoftPFReq hits
system.cpu.dcache.SoftPFReq_hits::total            20                       # number of SoftPFReq hits
system.cpu.dcache.SoftPFReq_misses::.cpu.data           12                       # number of SoftPFReq misses
system.cpu.dcache.SoftPFReq_misses::total           12                       # number of SoftPFReq misses
system.cpu.dcache.SoftPFReq_accesses::.cpu.data           32                       # number of SoftPFReq accesses(hits+misses)
system.cpu.dcache.SoftPFReq_accesses::total           32                       # number of SoftPFReq accesses(hits+misses)
system.cpu.dcache.SoftPFReq_miss_rate::.cpu.data     0.375000                       # miss rate for SoftPFReq accesses
system.cpu.dcache.SoftPFReq_miss_rate::total     0.375000                       # miss rate for SoftPFReq accesses
system.cpu.dcache.SoftPFReq_mshr_misses::.cpu.data            9                       # number of SoftPFReq MSHR misses
system.cpu.dcache.SoftPFReq_mshr_misses::total            9                       # number of SoftPFReq MSHR misses
system.cpu.dcache.SoftPFReq_mshr_miss_latency::.cpu.data       526887                       # number of SoftPFReq MSHR miss cycles
system.cpu.dcache.SoftPFReq_mshr_miss_latency::total       526887                       # number of SoftPFReq MSHR miss cycles
system.cpu.dcache.SoftPFReq_mshr_miss_rate::.cpu.data     0.281250                       # mshr miss rate for SoftPFReq accesses
system.cpu.dcache.SoftPFReq_mshr_miss_rate::total     0.281250                       # mshr miss rate for SoftPFReq accesses
system.cpu.dcache.SoftPFReq_avg_mshr_miss_latency::.cpu.data        58543                       # average SoftPFReq mshr miss latency
system.cpu.dcache.SoftPFReq_avg_mshr_miss_latency::total        58543                       # average SoftPFReq mshr miss latency
system.cpu.dcache.LoadLockedReq_hits::.cpu.data           36                       # number of LoadLockedReq hits
system.cpu.dcache.LoadLockedReq_hits::total           36                       # number of LoadLockedReq hits
system.cpu.dcache.LoadLockedReq_misses::.cpu.data            2                       # number of LoadLockedReq misses
system.cpu.dcache.LoadLockedReq_misses::total            2                       # number of LoadLockedReq misses
system.cpu.dcache.LoadLockedReq_miss_latency::.cpu.data       121212                       # number of LoadLockedReq miss cycles
system.cpu.dcache.LoadLockedReq_miss_latency::total       121212                       # number of LoadLockedReq miss cycles
system.cpu.dcache.LoadLockedReq_accesses::.cpu.data           38                       # number of LoadLockedReq accesses(hits+misses)
system.cpu.dcache.LoadLockedReq_accesses::total           38                       # number of LoadLockedReq accesses(hits+misses)
system.cpu.dcache.LoadLockedReq_miss_rate::.cpu.data     0.052632                       # miss rate for LoadLockedReq accesses
system.cpu.dcache.LoadLockedReq_miss_rate::total     0.052632                       # miss rate for LoadLockedReq accesses
system.cpu.dcache.LoadLockedReq_avg_miss_latency::.cpu.data        60606                       # average LoadLockedReq miss latency
system.cpu.dcache.LoadLockedReq_avg_miss_latency::total        60606                       # average LoadLockedReq miss latency
system.cpu.dcache.LoadLockedReq_mshr_misses::.cpu.data            2                       # number of LoadLockedReq MSHR misses
system.cpu.dcache.LoadLockedReq_mshr_misses::total            2                       # number of LoadLockedReq MSHR misses
system.cpu.dcache.LoadLockedReq_mshr_miss_latency::.cpu.data       119759                       # number of LoadLockedReq MSHR miss cycles
system.cpu.dcache.LoadLockedReq_mshr_miss_latency::total       119759                       # number of LoadLockedReq MSHR miss cycles
system.cpu.dcache.LoadLockedReq_mshr_miss_rate::.cpu.data     0.052632                       # mshr miss rate for LoadLockedReq accesses
system.cpu.dcache.LoadLockedReq_mshr_miss_rate::total     0.052632                       # mshr miss rate for LoadLockedReq accesses
system.cpu.dcache.LoadLockedReq_avg_mshr_miss_latency::.cpu.data 59879.500000                       # average LoadLockedReq mshr miss latency
system.cpu.dcache.LoadLockedReq_avg_mshr_miss_latency::total 59879.500000                       # average LoadLockedReq mshr miss latency
system.cpu.dcache.StoreCondReq_hits::.cpu.data           38                       # number of StoreCondReq hits
system.cpu.dcache.StoreCondReq_hits::total           38                       # number of StoreCondReq hits
system.cpu.dcache.StoreCondReq_accesses::.cpu.data           38                       # number of StoreCondReq accesses(hits+misses)
system.cpu.dcache.StoreCondReq_accesses::total           38                       # number of StoreCondReq accesses(hits+misses)
system.cpu.dcache.tags.pwrStateResidencyTicks::UNDEFINED     35202429                       # Cumulative time (in ticks) in various power states
system.cpu.dcache.tags.tagsinuse           103.471358                       # Cycle average of tags in use
system.cpu.dcache.tags.total_refs                5838                       # Total number of references to valid blocks.
system.cpu.dcache.tags.sampled_refs               168                       # Sample count of references to valid blocks.
system.cpu.dcache.tags.avg_refs             34.750000                       # Average number of references to valid blocks.
system.cpu.dcache.tags.warmup_cycle            144000                       # Cycle when the warmup percentage was hit.
system.cpu.dcache.tags.occ_blocks::.cpu.data   103.471358                       # Average occupied blocks per requestor
system.cpu.dcache.tags.occ_percent::.cpu.data     0.101046                       # Average percentage of cache occupancy
system.cpu.dcache.tags.occ_percent::total     0.101046                       # Average percentage of cache occupancy
system.cpu.dcache.tags.occ_task_id_blocks::1024          168                       # Occupied blocks per task id
system.cpu.dcache.tags.age_task_id_blocks_1024::0           18                       # Occupied blocks per task id
system.cpu.dcache.tags.age_task_id_blocks_1024::1          150                       # Occupied blocks per task id
system.cpu.dcache.tags.occ_task_id_percent::1024     0.164062                       # Percentage of cache occupancy per task id
system.cpu.dcache.tags.tag_accesses             11952                       # Number of tag accesses
system.cpu.dcache.tags.data_accesses            11952                       # Number of data accesses
system.cpu.itb.walker.pwrStateResidencyTicks::UNDEFINED     35202429                       # Cumulative time (in ticks) in various power states
system.cpu.itb.stage2_mmu.stage2_tlb.walker.pwrStateResidencyTicks::UNDEFINED     35202429                       # Cumulative time (in ticks) in various power states

---------- End Simulation Statistics   ----------
