McPAT (version 1.3 of Feb, 2015) is computing the target processor...
 
Warning: icache array structure cannot satisfy latency constraint.
ERROR: no valid data array organizations found
