McPAT (version 1.3 of Feb, 2015) is computing the target processor...
 
XML Parsing error inside file '/home/user/ACA_Lab3/specsjeng/L1i_size/128.xml'.
Error: File not found
At line 0, column 0.
